Version 4
SHEET 1 1344 680
WIRE 368 48 176 48
WIRE 528 80 400 80
WIRE 80 96 -48 96
WIRE 176 96 176 48
WIRE 176 96 144 96
WIRE 240 96 176 96
WIRE 144 112 144 96
WIRE 240 112 240 96
WIRE 528 128 528 80
WIRE 656 128 528 128
WIRE -48 144 -48 96
WIRE 1280 144 1280 112
WIRE 528 160 528 128
WIRE 656 176 656 128
WIRE 688 176 656 176
WIRE 912 176 912 128
WIRE 912 176 880 176
WIRE 80 192 80 96
WIRE 144 192 144 176
WIRE 144 192 80 192
WIRE 240 192 240 176
WIRE 240 192 192 192
WIRE 144 224 144 192
WIRE 192 224 192 192
WIRE 192 224 144 224
WIRE 240 224 240 192
WIRE 976 240 880 240
WIRE -48 256 -48 224
WIRE 976 256 976 240
WIRE 1280 256 1280 224
WIRE 528 272 528 240
WIRE 688 272 528 272
WIRE 912 272 880 272
WIRE 144 320 144 288
WIRE 240 320 240 288
WIRE 240 320 144 320
WIRE 400 320 400 80
WIRE 400 320 240 320
WIRE 912 336 912 272
WIRE 368 352 368 48
WIRE 528 352 528 272
WIRE 528 352 368 352
WIRE 976 368 976 336
WIRE 528 384 528 352
FLAG -48 256 0
FLAG 528 384 0
FLAG 976 368 0
FLAG 1280 256 0
FLAG 1280 112 3.3V
FLAG 912 128 3.3V
FLAG 912 336 3.3V
SYMBOL diode 128 112 R0
SYMATTR InstName D1
SYMBOL diode 224 112 R0
SYMATTR InstName D2
SYMBOL diode 128 224 R0
SYMATTR InstName D3
SYMBOL diode 224 224 R0
SYMATTR InstName D4
SYMBOL voltage -48 128 R0
WINDOW 3 -386 61 Left 2
WINDOW 123 0 0 Left 0
WINDOW 39 0 0 Left 0
SYMATTR InstName V1
SYMATTR Value SINE(0 220 60 0.1 0 0)
SYMBOL res 512 144 R0
SYMATTR InstName R1
SYMATTR Value 100k
SYMBOL res 960 240 R0
SYMATTR InstName R2
SYMATTR Value 100
SYMBOL voltage 1280 128 R0
WINDOW 123 0 0 Left 0
WINDOW 39 0 0 Left 0
SYMATTR InstName V3
SYMATTR Value 3.3
SYMBOL Optos\\CNY17-1 784 240 R0
SYMATTR InstName U2
TEXT -82 358 Left 2 !.tran 0 1 0 0.01
